Circuit: * C:\Users\Roberto\Documents\GitHub\Circuitos_2022_1\Circuitos_2_Monitoria_2022_1\Taller_10\Draft1.asc

.OP point found by inspection.

Date: Tue May 31 23:08:26 2022
Total elapsed time: 0.182 seconds.

tnom = 27
temp = 27
method = modified trap
totiter = 30208
traniter = 30208
tranpoints = 15105
accept = 10826
rejected = 4279
matrix size = 4
fillins = 0
solver = Normal
Matrix Compiler1: 100 bytes object code size  0.1/0.0/[0.0]
Matrix Compiler2: off  [0.1]/0.1/0.1

