Circuit: * C:\Users\Roberto\Documents\GitHub\Circuitos_2022_1\Circuitos_2_Monitoria_2022_1\Taller_9\Draft1.asc

.OP point found by inspection.

Date: Mon May 23 00:31:58 2022
Total elapsed time: 0.021 seconds.

tnom = 27
temp = 27
method = modified trap
totiter = 336
traniter = 336
tranpoints = 169
accept = 144
rejected = 25
matrix size = 4
fillins = 0
solver = Normal
Matrix Compiler1:       6 opcodes  0.0/[0.0]/0.0
Matrix Compiler2: off  [0.0]/0.1/0.1

