Circuit: * C:\Users\Roberto\Documents\GitHub\Circuitos_2022_1\Circuitos_2_Monitoria_2022_1\Taller_7\Draft1.asc

.step k=0.3
.step k=0.5
.step k=1

Date: Tue Apr 26 22:25:16 2022
Total elapsed time: 0.041 seconds.

tnom = 27
temp = 27
method = trap
totiter = 0
traniter = 0
tranpoints = 0
accept = 0
rejected = 0
matrix size = 7
fillins = 5
solver = Normal

