Circuit: * C:\Users\Roberto\Documents\GitHub\Circuitos_2022_1\Circuitos_2_Monitoria_2022_1\Taller_7\Draft2.asc

.OP point found by inspection.

Date: Fri Apr 29 16:15:14 2022
Total elapsed time: 0.021 seconds.

tnom = 27
temp = 27
method = modified trap
totiter = 1410
traniter = 1410
tranpoints = 706
accept = 489
rejected = 217
matrix size = 4
fillins = 0
solver = Normal
Matrix Compiler1: 100 bytes object code size  0.0/0.0/[0.0]
Matrix Compiler2: 248 bytes object code size  0.1/0.1/[0.0]

