Circuit: * C:\Users\Roberto\Documents\GitHub\Circuitos_2022_1\Circuitos_2_Monitoria_2022_1\Taller_7\Draft1.asc


Date: Fri Apr 29 16:00:31 2022
Total elapsed time: 0.020 seconds.

tnom = 27
temp = 27
method = trap
totiter = 0
traniter = 0
tranpoints = 0
accept = 0
rejected = 0
matrix size = 7
fillins = 5
solver = Normal

